[General]
network = PureAloha.AlohaNetwork
sim-time-limit = 20s

*.host[*].packetDuration   = 1
*.server.packetDuration    = 1

# G = 5 / meanInterArrival  (5 hosts, packetDuration = 1)
# G=0.1 → 50 | G=0.5 → 10 | G=1.0 → 5 | G=2.0 → 2.5
*.host[*].meanInterArrival = 10