[General]
network = Slotaloha.AlohaNetwork
sim-time-limit = 20s

*.host[*].slotTime = 1
*.server.slotTime = 1